40
Lattice="4.9669 0.0 0.0 0.0 11.459 0.0 -2.2846928716783785 0.0 4.918352579075844" Properties=species:S:1:pos:R:3:CS:R:1:CSerr:R:1:CSens:R:16:center_atoms_mask:L:1 pbc="T T T"
O        0.00000000       0.00000000       0.00000000     -38.05623647       1.10009742     -38.73539060     -37.59235632     -36.45626888     -39.44531601     -38.23899755     -38.20097619     -39.12997628     -37.71702273     -37.49680630     -39.40837692     -38.00276195     -36.30139085     -39.52694414     -36.22789847     -39.23404285     -37.18525749  T
O        0.00000000       0.00000000       0.00000000     -38.52128087       1.10010129     -39.24892849     -37.99118511     -37.01158338     -39.93686437     -38.68544018     -38.72133230     -39.68983415     -38.14645313     -37.91889508     -39.80318123     -38.41519832     -36.76989977     -39.97254677     -36.61205430     -39.65482154     -37.76227577  T
O        0.00000000       0.00000000       0.00000000     -38.20702557       1.04930315     -38.83855377     -37.69804501     -36.87618343     -39.62416644     -38.35580262     -38.49749525     -39.31576101     -38.00875795     -37.68991942     -39.23965083     -38.04700441     -36.44132429     -39.66748323     -36.34270995     -39.25289693     -37.41665456  T
O        0.00000000       0.00000000       0.00000000     -38.78329797       1.02582805     -39.39725378     -38.24797059     -37.48636727     -40.24305607     -38.96192334     -39.02162417     -39.88722032     -38.49041058     -38.24900641     -39.87123408     -38.66255467     -37.13799870     -40.15729236     -37.02257900     -39.79167810     -37.90459811  T
O        0.00000000       0.00000000       0.00000000     -57.74719244       0.95619443     -56.55464449     -55.86942570     -57.87529050     -58.62738829     -57.79952656     -58.28174939     -58.32057825     -57.65472753     -56.79968848     -59.55225769     -56.70232614     -56.92905956     -58.38752288     -57.26223933     -58.64929589     -58.68935836  T
O        0.00000000       0.00000000       0.00000000     -57.69741158       1.00112033     -56.55998450     -55.66326361     -57.77655745     -58.76990434     -57.57779272     -58.07123744     -58.26228257     -57.58442003     -56.69368202     -59.63476852     -56.51441201     -57.08684602     -58.49486817     -57.29385960     -58.43556345     -58.73914287  T
O        0.00000000       0.00000000       0.00000000     -56.79915808       1.00210498     -55.53065522     -54.71906064     -57.17654578     -57.91998891     -56.70924542     -57.24252159     -57.36305272     -56.97253982     -55.94717701     -58.71540522     -55.63350461     -56.07385272     -57.59521142     -56.25440849     -57.27195698     -57.66140271  T
O        0.00000000       0.00000000       0.00000000     -57.66950853       1.00853728     -56.41249001     -55.52211732     -57.91791121     -58.83366847     -57.65167688     -58.11469338     -58.20632115     -57.69333009     -56.95346425     -59.51300889     -56.52863573     -56.94556904     -58.46292929     -56.99320167     -58.34719791     -58.61592118  T
C        0.00000000       0.00000000       0.00000000      -8.42619135       0.07532508      -8.21725903      -8.47145536      -8.58367709      -8.45612643      -8.40112742      -8.42280487      -8.48373091      -8.38615911      -8.44272914      -8.39940311      -8.50545334      -8.44394604      -8.44841363      -8.38333073      -8.40665010      -8.36679527  F
C        0.00000000       0.00000000       0.00000000      -8.52921023       0.07535967      -8.31702314      -8.56708647      -8.67821925      -8.55586797      -8.49353917      -8.52486619      -8.58751671      -8.50101789      -8.53954454      -8.50208614      -8.61200949      -8.54846490      -8.56601264      -8.50270265      -8.51807211      -8.45333435  F
C        0.00000000       0.00000000       0.00000000      -8.33291706       0.07685612      -8.12731210      -8.38533484      -8.48292642      -8.37329925      -8.29601871      -8.31273263      -8.38128811      -8.29178093      -8.34216616      -8.28931889      -8.42181168      -8.36213506      -8.38131058      -8.30552638      -8.31402775      -8.25968352  F
C        0.00000000       0.00000000       0.00000000      -8.60645444       0.07455800      -8.40521889      -8.65752756      -8.75657953      -8.65816553      -8.57774563      -8.59029461      -8.64127307      -8.56763441      -8.62615378      -8.55980090      -8.68906283      -8.62967975      -8.63716383      -8.57844043      -8.59260222      -8.53592813  F
C        0.00000000       0.00000000       0.00000000     126.01609930       0.21332338     125.93837107     126.15442338     125.90899881     125.87116459     126.20257149     126.02260128     125.83499013     125.78803983     125.86273577     125.85982005     125.71172171     126.00371543     126.01576236     126.49972990     126.18072137     126.40222164  F
C        0.00000000       0.00000000       0.00000000     126.02206910       0.21595526     125.94829144     126.17626597     125.88675647     125.87356861     126.21075077     125.99222670     125.83606015     125.80049522     125.87873765     125.86806854     125.70776780     126.03011208     126.03473923     126.49329055     126.19051200     126.42546241  F
C        0.00000000       0.00000000       0.00000000     126.09618741       0.20992024     126.04044567     126.25564718     125.96579305     125.96339230     126.29581990     126.07573400     125.92911249     125.85464745     125.95434701     125.94217627     125.79145603     126.10025702     126.10041187     126.52766087     126.22723527     126.51486225  F
C        0.00000000       0.00000000       0.00000000     126.00797422       0.22057863     125.93923172     126.15729459     125.88596041     125.85488407     126.20830591     126.00860576     125.81156887     125.79356296     125.84952693     125.83839346     125.67973683     126.00570659     126.02510500     126.48852278     126.15665120     126.42453043  F
N        0.00000000       0.00000000       0.00000000     192.17771678       0.23150453     191.85804994     192.15213495     192.43045372     191.90444083     192.20992911     192.63764942     192.35975761     191.87393749     192.16749214     191.92666743     192.13878984     192.59828485     192.01852118     192.12345127     192.26881106     192.17509770  F
N        0.00000000       0.00000000       0.00000000     192.10531431       0.22922102     191.78640291     192.08304138     192.34566201     191.83357699     192.06578275     192.54577221     192.31868682     191.77717680     192.10259055     191.87754813     192.09500712     192.53037011     191.99668410     192.05420575     192.20374485     192.06877641  F
N        0.00000000       0.00000000       0.00000000     192.27339369       0.22820200     191.94369511     192.23848512     192.51878552     191.98586927     192.25069965     192.74333530     192.43836078     192.00927607     192.26208818     192.04207249     192.22177494     192.69932576     192.17538249     192.20355198     192.37266565     192.26893077  F
N        0.00000000       0.00000000       0.00000000     192.13012238       0.22891433     191.82701518     192.07327724     192.38331644     191.84105146     192.07022820     192.57878940     192.31942011     191.86263217     192.11525223     191.88659790     192.10237215     192.57266498     192.02315760     192.05557546     192.23086546     192.13974212  F
H        0.00000000       0.00000000       0.00000000      25.22212628       0.04530212      25.19279587      25.17512016      25.26518086      25.20155147      25.24444669      25.14633317      25.29555105      25.18609534      25.18424320      25.20902571      25.25833938      25.15599111      25.23422132      25.24688271      25.27695326      25.28128923  F
H        0.00000000       0.00000000       0.00000000      25.20649551       0.04453871      25.17951838      25.16380675      25.25161606      25.19115714      25.23597532      25.12729238      25.27538788      25.16973010      25.16628507      25.19201166      25.24389558      25.14208361      25.21642542      25.22905894      25.25840097      25.26128294  F
H        0.00000000       0.00000000       0.00000000      25.19370211       0.04434155      25.16735670      25.14693013      25.24263446      25.17749321      25.21508652      25.12015195      25.26170854      25.15387369      25.15522919      25.17557075      25.22693496      25.13329104      25.20370965      25.21642549      25.25165275      25.25118479  F
H        0.00000000       0.00000000       0.00000000      25.19546219       0.04347277      25.16933412      25.15219498      25.24671195      25.17875437      25.22267793      25.12354384      25.26252699      25.16156791      25.15290014      25.17991999      25.22415369      25.13278991      25.20533485      25.21536972      25.24720290      25.25241176  F
H        0.00000000       0.00000000       0.00000000      26.54525119       0.04031814      26.53161473      26.52437613      26.58064284      26.54548983      26.56845276      26.44607817      26.57632543      26.53133526      26.53628210      26.52915843      26.58653036      26.47593954      26.54006828      26.58531446      26.60811690      26.55829380  F
H        0.00000000       0.00000000       0.00000000      26.54509200       0.04057248      26.53311597      26.52116906      26.58208072      26.54520623      26.56608938      26.44485638      26.58083461      26.53257714      26.53598795      26.53009284      26.58607989      26.47745745      26.53904381      26.58053441      26.61124886      26.55509723  F
H        0.00000000       0.00000000       0.00000000      26.56309289       0.04139038      26.55031300      26.53837581      26.60152875      26.56255705      26.58532647      26.46209135      26.59456520      26.54415817      26.55531598      26.54740615      26.60454821      26.49500633      26.55796225      26.60278725      26.63153572      26.57600863  F
H        0.00000000       0.00000000       0.00000000      26.53079027       0.04176317      26.51504333      26.50785739      26.56710800      26.53184323      26.55203904      26.42552367      26.56247110      26.51614848      26.52414899      26.51540533      26.57117909      26.46169521      26.52911513      26.56845081      26.59976035      26.54485519  F
H        0.00000000       0.00000000       0.00000000      18.84421402       0.05911520      18.87186651      18.89947853      18.70775185      18.82132194      18.81429386      18.84567392      18.86554173      18.85492498      18.83703788      18.86518648      18.96292486      18.73381211      18.88096776      18.86322192      18.80307635      18.88034360  F
H        0.00000000       0.00000000       0.00000000      18.75961289       0.06203872      18.78826986      18.81659302      18.61715907      18.73602599      18.72205433      18.76151856      18.78557663      18.77125278      18.75542481      18.78142323      18.88587641      18.64607148      18.79276288      18.77070741      18.71748399      18.80560585  F
H        0.00000000       0.00000000       0.00000000      18.83719067       0.06158747      18.85805923      18.89275986      18.69500035      18.81428628      18.80677569      18.83734743      18.86405104      18.85114043      18.83159357      18.85570319      18.96538892      18.72489814      18.87598495      18.85262011      18.79344580      18.87599575  F
H        0.00000000       0.00000000       0.00000000      18.79433979       0.06062244      18.81631313      18.84630087      18.65432731      18.76666557      18.76298341      18.79414165      18.81655591      18.80795518      18.79120044      18.81677439      18.91926856      18.68199309      18.82906584      18.80904799      18.75725585      18.83958740  F
H        0.00000000       0.00000000       0.00000000      20.05065686       0.06262730      20.00949960      20.07593190      19.93275585      20.07887736      20.01768956      20.08562550      20.09363794      20.06642562      19.97200867      20.13221289      20.13453147      19.94013123      20.06084745      20.05635725      20.01490606      20.13907148  F
H        0.00000000       0.00000000       0.00000000      20.00252294       0.06464651      19.95459670      20.03629144      19.88351093      20.03197822      19.96460868      20.04049276      20.04650583      20.01424964      19.91954807      20.08375852      20.08741832      19.88773287      20.01543815      20.01463360      19.96744355      20.09215973  F
H        0.00000000       0.00000000       0.00000000      20.01044675       0.06553164      19.96363796      20.03901540      19.88712954      20.04066423      19.97559750      20.04746992      20.05546790      20.02736111      19.92540994      20.09581376      20.09551663      19.89589391      20.02201425      20.01849848      19.97559524      20.10206229  F
H        0.00000000       0.00000000       0.00000000      20.08871317       0.06479937      20.04463140      20.11260536      19.96882546      20.11965462      20.05620135      20.12742318      20.13553611      20.09779918      20.00486001      20.17233412      20.16888279      19.97116008      20.10252427      20.10218750      20.05327792      20.18150739  F
H        0.00000000       0.00000000       0.00000000      23.99618174       0.05949287      23.98185995      24.01228183      23.93264733      24.00039411      23.96872567      23.98310287      24.07294905      24.03586052      23.97032821      24.05679818      24.02489268      23.85206348      24.01829694      24.03855674      23.90705557      24.08309479  F
H        0.00000000       0.00000000       0.00000000      24.01822100       0.06125526      24.00160774      24.03284561      23.95579021      24.02391630      23.99061909      24.00327689      24.09541048      24.06546631      23.99308504      24.08253490      24.04705427      23.86725328      24.03618645      24.06223274      23.92828298      24.10597367  F
H        0.00000000       0.00000000       0.00000000      23.99563426       0.05913419      23.98719130      24.01298327      23.93111778      24.01200692      23.96451509      23.98715602      24.06752172      24.02886690      23.96439588      24.05561399      24.02772899      23.85094404      24.01069341      24.04190020      23.90738124      24.08013150  F
H        0.00000000       0.00000000       0.00000000      24.02146925       0.05958136      24.01009803      24.03468734      23.96036567      24.04013110      23.99216078      24.01077415      24.09549886      24.05571469      23.99190293      24.08293242      24.05165952      23.87382493      24.03778658      24.06376675      23.93344146      24.10876281  F
